Version 4
SHEET 1 1768 880
WIRE 656 -208 -160 -208
WIRE 752 -208 656 -208
WIRE -160 -160 -160 -208
WIRE 752 -144 752 -208
WIRE 688 -80 608 -80
WIRE 976 -80 816 -80
WIRE -400 32 -528 32
WIRE -256 32 -400 32
WIRE 16 80 -80 80
WIRE 224 80 16 80
WIRE 432 80 368 80
WIRE 608 80 608 -80
WIRE 608 80 560 80
WIRE 704 80 608 80
WIRE 848 80 800 80
WIRE -256 96 -336 96
WIRE 704 112 672 112
WIRE -528 144 -528 32
WIRE 272 144 272 128
WIRE 320 144 320 128
WIRE 320 144 272 144
WIRE 320 160 320 144
WIRE 496 224 496 144
WIRE 688 224 496 224
WIRE 848 224 848 80
WIRE 848 224 688 224
FLAG -528 224 0
FLAG -432 448 0
FLAG -432 368 CLK
FLAG -336 96 CLK
FLAG 16 80 adc_out
FLAG -400 32 in
FLAG 672 112 clk
IOPIN 672 112 In
FLAG 976 -80 out
FLAG 320 160 0
FLAG 688 224 feedback
FLAG -160 -80 0
FLAG 656 -208 initial_condifition
SYMBOL voltage -528 128 R0
WINDOW 123 0 0 Left 0
WINDOW 39 0 0 Left 0
SYMATTR InstName V1
SYMATTR Value SINE(0 1 {0.5/pi} 0 0)
SYMBOL voltage -432 352 R0
WINDOW 123 0 0 Left 0
WINDOW 39 0 0 Left 0
SYMATTR InstName V2
SYMATTR Value PULSE(-1 1 0 100ns 100nS {0.5/Fs} {1/Fs})
SYMBOL SpecialFunctions\\sample -176 64 R0
WINDOW 3 -77 113 Left 2
SYMATTR Value Vhigh=100kv Vlow=-100kv
SYMATTR InstName A1
SYMBOL sum1 496 80 R0
SYMATTR InstName U1
SYMBOL z-1 752 80 R0
SYMATTR InstName X1
SYMBOL gain 272 80 R0
WINDOW 3 -27 0 Left 1
SYMATTR Value {1/Fs}
SYMATTR InstName E2
SYMBOL sum3 752 -80 R0
SYMATTR InstName U2
SYMBOL voltage -160 -176 R0
SYMATTR InstName V3
SYMATTR Value -1
TEXT 224 448 Left 2 !.param Fs=1kHz ; Discrete Time Sample Rate
TEXT 224 472 Left 2 !.tran {3*2*pi}
TEXT 184 -128 Left 2 ;DISCRETE TIME INTEGRATOR
TEXT -552 -416 Left 2 ;Input is a 1V sine wave with a frequency of 1 rad/sec. Integrator ouput is a -1V cosine wave (correct magnitute).\nInitial conditions on integrator are -1V. Discrete sampling rate is 1 kHz.
TEXT -552 -328 Left 2 ;NOTE: Through experimentation, the Sample and Hold block appears to clip its output\nto be wetween Vhigh and Vlow, which default to +/-20V. Hence, these should be explicitly\nset to large values (such as +/-100 kV) to aviod issues.
TEXT -552 536 Left 2 ;Copyright (C) 2022 John Vedder. MIT License.
RECTANGLE Normal 896 256 160 -160 1
RECTANGLE Normal 496 -240 -560 -352 2
