Version 4
SHEET 1 1520 680
WIRE 224 272 32 272
WIRE 608 272 432 272
WIRE 432 320 432 272
WIRE 432 320 400 320
WIRE 464 320 432 320
WIRE 848 320 784 320
WIRE 112 336 64 336
WIRE 224 336 176 336
WIRE 608 336 576 336
WIRE 64 432 64 336
WIRE 64 432 32 432
WIRE 576 432 576 336
WIRE 576 432 64 432
FLAG 464 320 A
FLAG 32 272 in
IOPIN 32 272 In
FLAG 32 432 clk
IOPIN 32 432 In
FLAG 848 320 out
IOPIN 848 320 Out
SYMBOL SpecialFunctions\\sample 688 304 R0
WINDOW 3 -76 112 Left 2
SYMATTR InstName A2
SYMATTR Value Vhigh=100kv Vlow=-100kv
SYMBOL SpecialFunctions\\sample 304 304 R0
WINDOW 3 -76 111 Left 2
SYMATTR InstName A1
SYMATTR Value Vhigh=100kv Vlow=-100kv
SYMBOL Digital\\inv 112 272 R0
SYMATTR InstName A3
